Version 4.1
SHEET 1 1152 680
WIRE 336 -288 336 -320
WIRE 336 -288 208 -288
WIRE 480 -288 336 -288
WIRE 208 -240 208 -288
WIRE 208 -240 192 -240
WIRE 480 -240 480 -288
WIRE 496 -240 480 -240
WIRE 192 -192 192 -240
WIRE 208 -192 192 -192
WIRE 304 -192 272 -192
WIRE 416 -192 304 -192
WIRE 496 -192 496 -240
WIRE 496 -192 480 -192
WIRE 480 -128 480 -144
WIRE 208 -112 208 -144
WIRE 304 -112 304 -192
WIRE 304 -112 208 -112
WIRE 208 -80 208 -112
WIRE 480 -32 480 -48
WIRE 720 -32 720 -80
WIRE 720 -32 480 -32
WIRE 416 16 368 16
WIRE 480 48 480 16
WIRE 480 208 480 64
FLAG 480 208 0
FLAG -96 -80 0
FLAG 368 16 Vin
FLAG 720 -80 Vout
FLAG -96 -160 Vin
FLAG -240 -80 0
FLAG -240 -160 COM
FLAG 336 -320 COM
FLAG 208 0 0
SYMBOL voltage -96 -176 R0
WINDOW 123 0 0 Left 0
WINDOW 39 0 0 Left 0
SYMATTR InstName V_in
SYMATTR Value 1
SYMBOL EE551\\NMOS4 416 16 R0
SYMATTR Value2 W=20u
SYMATTR SpiceLine L=2u
SYMATTR InstName U1
SYMBOL EE551\\PMOS4 416 -192 R0
SYMATTR Value2 W={Wp}
SYMATTR SpiceLine L=2u
SYMATTR InstName U2
SYMBOL EE551\\PMOS4 272 -192 M0
SYMATTR InstName U3
SYMBOL voltage -240 -176 R0
WINDOW 123 0 0 Left 0
WINDOW 39 0 0 Left 0
SYMATTR InstName V_VDD
SYMATTR Value 3.3
SYMBOL current 208 -80 R0
WINDOW 123 0 0 Left 0
WINDOW 39 0 0 Left 0
SYMATTR InstName Ibias
SYMATTR Value 10µ
SYMBOL voltage 480 -144 R0
WINDOW 123 0 0 Left 0
WINDOW 39 0 0 Left 0
SYMATTR InstName vmeas
SYMATTR Value 0
TEXT 840 -200 Left 2 !.dc V_in 0 3.3 1m
TEXT 840 -176 Left 2 ;.step param Wp 1u 20u 1u
TEXT 848 -144 Left 2 !.param Wp=10u
