Version 4
SHEET 1 880 680
WIRE -336 -288 -336 -320
WIRE -176 -288 -176 -320
WIRE 80 -288 80 -320
WIRE 240 -288 240 -320
WIRE 480 -288 480 -320
WIRE 640 -288 640 -320
WIRE -336 -176 -336 -208
WIRE -272 -176 -336 -176
WIRE -176 -176 -176 -208
WIRE 80 -176 80 -208
WIRE 144 -176 80 -176
WIRE 240 -176 240 -208
WIRE 480 -176 480 -208
WIRE 544 -176 480 -176
WIRE 640 -176 640 -208
WIRE -336 -128 -368 -128
WIRE -272 -128 -272 -176
WIRE -240 -128 -272 -128
WIRE -160 -128 -176 -128
WIRE 80 -128 48 -128
WIRE 144 -128 144 -176
WIRE 176 -128 144 -128
WIRE 256 -128 240 -128
WIRE 480 -128 448 -128
WIRE 544 -128 544 -176
WIRE 576 -128 544 -128
WIRE 656 -128 640 -128
WIRE -176 -64 -176 -80
WIRE -160 -64 -160 -128
WIRE -160 -64 -176 -64
WIRE 240 -64 240 -80
WIRE 256 -64 256 -128
WIRE 256 -64 240 -64
WIRE 640 -64 640 -80
WIRE 656 -64 656 -128
WIRE 656 -64 640 -64
WIRE -368 -48 -368 -128
WIRE -336 -48 -336 -80
WIRE -336 -48 -368 -48
WIRE 48 -48 48 -128
WIRE 80 -48 80 -80
WIRE 80 -48 48 -48
WIRE 448 -48 448 -128
WIRE 480 -48 480 -80
WIRE 480 -48 448 -48
WIRE -336 -32 -336 -48
WIRE -176 -32 -176 -64
WIRE 80 -32 80 -48
WIRE 240 -32 240 -64
WIRE 480 -32 480 -48
WIRE 640 -32 640 -64
WIRE 352 144 352 96
FLAG -176 -320 VDD
FLAG 240 -320 VDD
FLAG 640 -320 VDD
FLAG -176 -32 0
FLAG 240 -32 0
FLAG 640 -32 0
FLAG -336 -32 0
FLAG -336 -320 VDD
FLAG 80 -32 0
FLAG 80 -320 VDD
FLAG 480 -32 0
FLAG 480 -320 VDD
FLAG 352 224 0
FLAG 352 96 VDD
SYMBOL EE551\\NMOS4 -240 -128 R0
WINDOW 123 83 13 Left 2
WINDOW 39 84 35 Left 2
SYMATTR Value2 W=7u
SYMATTR SpiceLine L=0.7u
SYMATTR InstName U1
SYMBOL EE551\\NMOS4 176 -128 R0
WINDOW 123 83 15 Left 2
WINDOW 39 82 38 Left 2
SYMATTR Value2 W=7u
SYMATTR SpiceLine L=2u
SYMATTR InstName U2
SYMBOL EE551\\NMOS4 576 -128 R0
WINDOW 123 84 12 Left 2
WINDOW 39 86 35 Left 2
SYMATTR Value2 W=7u
SYMATTR SpiceLine L=10u
SYMATTR InstName U3
SYMBOL voltage -176 -304 R0
WINDOW 123 0 0 Left 0
WINDOW 39 0 0 Left 0
SYMATTR InstName 0.7u
SYMATTR Value 0
SYMBOL voltage 240 -304 R0
WINDOW 123 0 0 Left 0
WINDOW 39 0 0 Left 0
SYMATTR InstName 2u
SYMATTR Value 0
SYMBOL voltage 640 -304 R0
WINDOW 123 0 0 Left 0
WINDOW 39 0 0 Left 0
SYMATTR InstName 10u
SYMATTR Value 0
SYMBOL EE551\\NMOS4 -272 -128 M0
WINDOW 123 101 5 Left 2
WINDOW 39 103 30 Left 2
SYMATTR Value2 W=7u
SYMATTR SpiceLine L=0.7u
SYMATTR InstName U4
SYMBOL current -336 -288 R0
WINDOW 123 0 0 Left 0
WINDOW 39 0 0 Left 0
SYMATTR InstName Ibias1
SYMATTR Value {IbiasSub}
SYMBOL EE551\\NMOS4 144 -128 M0
WINDOW 123 101 5 Left 2
WINDOW 39 103 30 Left 2
SYMATTR Value2 W=7u
SYMATTR SpiceLine L=2u
SYMATTR InstName U5
SYMBOL current 80 -288 R0
WINDOW 123 0 0 Left 0
WINDOW 39 0 0 Left 0
SYMATTR InstName Ibias2
SYMATTR Value {IbiasSub}
SYMBOL EE551\\NMOS4 544 -128 M0
WINDOW 123 101 5 Left 2
WINDOW 39 103 30 Left 2
SYMATTR Value2 W=7u
SYMATTR SpiceLine L=10u
SYMATTR InstName U6
SYMBOL current 480 -288 R0
WINDOW 123 0 0 Left 0
WINDOW 39 0 0 Left 0
SYMATTR InstName Ibias3
SYMATTR Value {IbiasSub}
SYMBOL voltage 352 128 R0
SYMATTR InstName VDD
SYMATTR Value 1
TEXT 32 64 Left 2 !.param IbiasSub = 1000n
TEXT 32 96 Left 2 !.param IbiasAbove=10u
TEXT 32 136 Left 2 !.dc VDD 0 3.3 0.001
