Version 4.1
SHEET 1 1208 680
WIRE 480 -64 480 -128
WIRE 784 -64 784 -128
WIRE 1088 -64 1088 -128
WIRE 192 48 144 48
WIRE 480 80 480 16
WIRE 784 80 784 16
WIRE 1088 80 1088 16
WIRE 0 96 0 32
WIRE 144 96 144 48
WIRE 416 128 384 128
WIRE 496 128 480 128
WIRE 720 128 688 128
WIRE 800 128 784 128
WIRE 1024 128 992 128
WIRE 1104 128 1088 128
WIRE 480 192 480 176
WIRE 496 192 496 128
WIRE 496 192 480 192
WIRE 784 192 784 176
WIRE 800 192 800 128
WIRE 800 192 784 192
WIRE 1088 192 1088 176
WIRE 1104 192 1104 128
WIRE 1104 192 1088 192
WIRE 0 256 0 176
WIRE 144 256 144 176
WIRE 480 288 480 192
WIRE 784 288 784 192
WIRE 1088 288 1088 192
FLAG 0 256 0
FLAG 0 32 COM
FLAG 144 256 0
FLAG 192 48 V_IN
FLAG 384 128 V_IN
FLAG 688 128 V_IN
FLAG 992 128 V_IN
FLAG 480 -128 COM
FLAG 784 -128 COM
FLAG 1088 -128 COM
FLAG 480 288 0
FLAG 784 288 0
FLAG 1088 288 0
SYMBOL voltage 0 80 R0
WINDOW 123 0 0 Left 0
WINDOW 39 0 0 Left 0
SYMATTR InstName VDD
SYMATTR Value 2.5
SYMBOL EE551\\NMOS4 416 128 R0
SYMATTR Value2 W=5u
SYMATTR SpiceLine L=5u
SYMATTR InstName Q1
SYMBOL EE551\\NMOS4 720 128 R0
SYMATTR Value2 W=10u
SYMATTR SpiceLine L=5u
SYMATTR InstName Q2
SYMBOL EE551\\NMOS4 1024 128 R0
SYMATTR Value2 W=15u
SYMATTR SpiceLine L=5u
SYMATTR InstName Q3
SYMBOL voltage 144 80 R0
WINDOW 3 42 92 Left 2
WINDOW 123 0 0 Left 0
WINDOW 39 0 0 Left 0
SYMATTR InstName VIN
SYMATTR Value 1
SYMBOL voltage 480 -80 R0
WINDOW 123 0 0 Left 0
WINDOW 39 0 0 Left 0
SYMATTR InstName 5um
SYMATTR Value 0
SYMBOL voltage 784 -80 R0
WINDOW 123 0 0 Left 0
WINDOW 39 0 0 Left 0
SYMATTR InstName 10um
SYMATTR Value 0
SYMBOL voltage 1088 -80 R0
WINDOW 123 0 0 Left 0
WINDOW 39 0 0 Left 0
SYMATTR InstName 15um
SYMATTR Value 0
TEXT 840 344 Left 2 !.dc VIN 0 2.5 0.001
