Version 4.1
SHEET 1 1104 784
WIRE 16 -16 16 -48
WIRE 384 -16 384 -48
WIRE 736 -16 736 -48
WIRE 16 96 16 64
WIRE 384 96 384 64
WIRE 736 96 736 64
WIRE -256 112 -256 64
WIRE -48 144 -80 144
WIRE 32 144 16 144
WIRE 320 144 288 144
WIRE 400 144 384 144
WIRE 672 144 640 144
WIRE 752 144 736 144
WIRE 16 208 16 192
WIRE 32 208 32 144
WIRE 32 208 16 208
WIRE 384 208 384 192
WIRE 400 208 400 144
WIRE 400 208 384 208
WIRE 736 208 736 192
WIRE 752 208 752 144
WIRE 752 208 736 208
WIRE 16 240 16 208
WIRE 384 240 384 208
WIRE 736 240 736 208
WIRE -384 304 -384 256
WIRE 32 432 32 400
WIRE 400 432 400 400
WIRE 752 432 752 400
WIRE -256 528 -256 480
WIRE 32 544 32 512
WIRE 400 544 400 512
WIRE 752 544 752 512
WIRE -32 592 -64 592
WIRE 48 592 32 592
WIRE 336 592 304 592
WIRE 416 592 400 592
WIRE 688 592 656 592
WIRE 768 592 752 592
WIRE 32 656 32 640
WIRE 48 656 48 592
WIRE 48 656 32 656
WIRE 400 656 400 640
WIRE 416 656 416 592
WIRE 416 656 400 656
WIRE 752 656 752 640
WIRE 768 656 768 592
WIRE 768 656 752 656
WIRE 32 688 32 656
WIRE 400 688 400 656
WIRE 752 688 752 656
FLAG -384 384 0
FLAG -256 192 0
FLAG 16 -48 VDD
FLAG 384 -48 VDD
FLAG 736 -48 VDD
FLAG 16 240 0
FLAG 384 240 0
FLAG 736 240 0
FLAG -256 64 SUB
FLAG -384 256 VDD
FLAG -80 144 SUB
FLAG 288 144 SUB
FLAG 640 144 SUB
FLAG 32 400 VDD
FLAG 400 400 VDD
FLAG 752 400 VDD
FLAG 32 688 0
FLAG 400 688 0
FLAG 752 688 0
FLAG -256 608 0
FLAG -256 480 ABOVE
FLAG -64 592 ABOVE
FLAG 304 592 ABOVE
FLAG 656 592 ABOVE
SYMBOL EE551\\NMOS4 -48 144 R0
SYMATTR Value2 W=7u
SYMATTR SpiceLine L=0.7u
SYMATTR InstName U1
SYMBOL EE551\\NMOS4 320 144 R0
SYMATTR Value2 W=7u
SYMATTR SpiceLine L=2u
SYMATTR InstName U2
SYMBOL EE551\\NMOS4 672 144 R0
SYMATTR Value2 W=7u
SYMATTR SpiceLine L=10u
SYMATTR InstName U3
SYMBOL voltage -384 288 R0
SYMATTR InstName VDD
SYMATTR Value 1
SYMBOL voltage -256 96 R0
SYMATTR InstName Sub
SYMATTR Value 0.4
SYMBOL voltage 16 -32 R0
WINDOW 123 0 0 Left 0
WINDOW 39 0 0 Left 0
SYMATTR InstName 0.7u
SYMATTR Value 0
SYMBOL voltage 384 -32 R0
WINDOW 123 0 0 Left 0
WINDOW 39 0 0 Left 0
SYMATTR InstName 2u
SYMATTR Value 0
SYMBOL voltage 736 -32 R0
WINDOW 123 0 0 Left 0
WINDOW 39 0 0 Left 0
SYMATTR InstName 10u
SYMATTR Value 0
SYMBOL EE551\\NMOS4 -32 592 R0
SYMATTR Value2 W=7u
SYMATTR SpiceLine L=0.7u
SYMATTR InstName U4
SYMBOL EE551\\NMOS4 336 592 R0
SYMATTR Value2 W=7u
SYMATTR SpiceLine L=2u
SYMATTR InstName U5
SYMBOL EE551\\NMOS4 688 592 R0
SYMATTR Value2 W=7u
SYMATTR SpiceLine L=10u
SYMATTR InstName U6
SYMBOL voltage 32 416 R0
WINDOW 123 0 0 Left 0
WINDOW 39 0 0 Left 0
SYMATTR InstName V1
SYMATTR Value 0
SYMBOL voltage 400 416 R0
WINDOW 123 0 0 Left 0
WINDOW 39 0 0 Left 0
SYMATTR InstName V2
SYMATTR Value 0
SYMBOL voltage 752 416 R0
WINDOW 123 0 0 Left 0
WINDOW 39 0 0 Left 0
SYMATTR InstName V3
SYMATTR Value 0
SYMBOL voltage -256 512 R0
SYMATTR InstName Above
SYMATTR Value 1.8
TEXT 456 768 Left 2 !.dc VDD 0 2.5 0.001
