Version 4
SHEET 1 880 680
WIRE 272 -160 272 -208
WIRE 272 -160 256 -160
WIRE 512 -160 512 -208
WIRE 528 -160 512 -160
WIRE 272 -144 272 -160
WIRE 512 -144 512 -160
WIRE 256 -96 256 -160
WIRE 272 -96 256 -96
WIRE 352 -96 336 -96
WIRE 448 -96 352 -96
WIRE 528 -96 528 -160
WIRE 528 -96 512 -96
WIRE 272 -32 272 -48
WIRE 352 -32 352 -96
WIRE 352 -32 272 -32
WIRE 272 0 272 -32
WIRE 512 48 512 -48
WIRE 624 48 512 48
WIRE 656 48 624 48
WIRE 656 80 656 48
WIRE 80 112 80 64
WIRE 272 128 272 80
WIRE 512 128 512 48
WIRE 80 160 80 112
WIRE 448 176 368 176
WIRE 528 176 512 176
WIRE 656 176 656 144
WIRE 368 208 368 176
WIRE 512 240 512 224
WIRE 528 240 528 176
WIRE 528 240 512 240
WIRE 512 256 512 240
WIRE 80 272 80 240
WIRE 368 320 368 288
FLAG 512 256 0
FLAG 368 320 0
FLAG 80 272 0
FLAG 80 112 vdd
FLAG 368 176 vin
FLAG 512 -208 COM
FLAG 80 64 COM
FLAG 272 128 0
FLAG 272 -208 COM
FLAG 624 48 vout
FLAG 656 176 0
SYMBOL EE551\\NMOS4 448 176 R0
SYMATTR Value2 W=2u
SYMATTR SpiceLine L=1u
SYMATTR InstName U1
SYMBOL voltage 368 192 R0
SYMATTR InstName V_input
SYMATTR Value 1
SYMBOL voltage 80 144 R0
SYMATTR InstName V_supply
SYMATTR Value 3.3
SYMBOL EE551\\PMOS4 448 -96 R0
SYMATTR InstName U2
SYMATTR Value2 W=7u
SYMATTR SpiceLine L=1u
SYMBOL EE551\\PMOS4 336 -96 M0
SYMATTR InstName U3
SYMATTR Value2 W=7u
SYMATTR SpiceLine L=1u
SYMBOL current 272 0 R0
SYMATTR InstName Ibias
SYMATTR Value 100n
SYMBOL cap 640 80 R0
SYMATTR InstName CL
SYMATTR Value 1p
TEXT 32 -240 Left 2 !.dc V_input 0 3.3 0.001
