Version 4
SHEET 1 1040 820
WIRE 240 -64 240 -96
WIRE 528 -64 528 -96
WIRE 240 64 240 16
WIRE 528 64 528 16
WIRE 112 112 64 112
WIRE 176 112 112 112
WIRE 656 112 592 112
WIRE 704 112 656 112
WIRE 64 144 64 112
WIRE 704 144 704 112
WIRE 16 160 -32 160
WIRE 800 160 752 160
WIRE 240 208 240 160
WIRE 384 208 240 208
WIRE 528 208 528 160
WIRE 528 208 384 208
WIRE 160 256 160 224
WIRE 64 272 64 224
WIRE 704 272 704 224
WIRE 384 304 384 208
WIRE -208 368 -208 320
WIRE 160 368 160 336
WIRE 240 368 160 368
WIRE -528 384 -528 336
WIRE -400 384 -400 336
WIRE 160 384 160 368
WIRE 240 432 240 368
WIRE 240 432 224 432
WIRE 320 432 240 432
WIRE -208 480 -208 448
WIRE -528 496 -528 464
WIRE -400 496 -400 464
WIRE 160 592 160 480
WIRE 256 592 160 592
WIRE 384 592 384 480
WIRE 256 640 256 592
WIRE 256 640 224 640
WIRE 320 640 256 640
FLAG 240 112 0
FLAG 528 112 0
FLAG 384 432 0
FLAG 160 432 0
FLAG -208 480 0
FLAG 160 224 COM
FLAG 240 -96 COM
FLAG 528 -96 COM
FLAG -208 320 COM
FLAG -528 496 0
FLAG -528 336 v_cm
FLAG -400 496 0
FLAG -400 336 v_diff
FLAG 64 272 v_cm
FLAG 16 208 0
FLAG -32 160 v_diff
FLAG 704 272 v_cm
FLAG 752 208 0
FLAG 800 160 v_diff
FLAG 112 112 vin_p
FLAG 656 112 vin_m
FLAG 160 688 0
FLAG 160 640 0
FLAG 384 688 0
FLAG 384 640 0
SYMBOL EE551\\NMOS4 176 112 R0
SYMATTR Value2 W=10u
SYMATTR SpiceLine L=1u
SYMATTR InstName U1
SYMBOL voltage 384 288 R0
SYMATTR InstName V_Itail
SYMATTR Value 0
SYMBOL voltage 240 -80 R0
SYMATTR InstName V_I1
SYMATTR Value 0
SYMBOL voltage 528 -80 R0
SYMATTR InstName V_I2
SYMATTR Value 0
SYMBOL EE551\\NMOS4 592 112 M0
SYMATTR Value2 W=10u
SYMATTR SpiceLine L=1u
SYMATTR InstName U2
SYMBOL EE551\\NMOS4 320 432 R0
SYMATTR Value2 W=20u
SYMATTR SpiceLine L=2u
SYMATTR InstName U3
SYMBOL EE551\\NMOS4 224 432 M0
SYMATTR Value2 W=20u
SYMATTR SpiceLine L=2u
SYMATTR InstName U4
SYMBOL current 160 256 R0
SYMATTR InstName Ibias
SYMATTR Value {i_bias}
SYMBOL voltage -208 352 R0
SYMATTR InstName vdd
SYMATTR Value 2.5
SYMBOL e 64 128 R0
SYMATTR InstName EIN_P
SYMATTR Value 0.5
SYMBOL voltage -528 368 R0
SYMATTR InstName VCM
SYMATTR Value {v_vcm}
SYMBOL voltage -400 368 R0
SYMATTR InstName VDIFF
SYMATTR Value 10m
SYMBOL e 704 128 M0
SYMATTR InstName EIN_M
SYMATTR Value -0.5
SYMBOL EE551\\NMOS4 224 640 M0
SYMATTR Value2 W=20u
SYMATTR SpiceLine L=2u
SYMATTR InstName U5
SYMBOL EE551\\NMOS4 320 640 R0
SYMATTR Value2 W=20u
SYMATTR SpiceLine L=2u
SYMATTR InstName U6
TEXT -528 32 Left 2 !.dc vdiff -0.5 0.5 0.1m
TEXT -528 112 Left 2 ;.param v_vcm=1.25
TEXT -528 232 Left 2 !.step param v_vcm 1.25 2 0.25
TEXT -528 88 Left 2 !.param i_bias=50u
TEXT -528 208 Left 2 ;.step param i_bias list 10n 100n 10u 100u
TEXT -528 184 Left 2 ;.step param i_bias 10u 100u 10u
