Version 4
SHEET 1 880 680
WIRE 304 -16 304 -64
WIRE 320 -16 304 -16
WIRE 304 0 304 -16
WIRE 240 48 224 48
WIRE 320 48 320 -16
WIRE 320 48 304 48
WIRE -112 96 -112 48
WIRE 224 112 224 48
WIRE 304 112 304 96
WIRE 304 128 304 112
WIRE -112 144 -112 96
WIRE 64 144 64 112
WIRE 224 176 224 112
WIRE 240 176 224 176
WIRE 320 176 304 176
WIRE 304 240 304 224
WIRE 320 240 320 176
WIRE 320 240 304 240
WIRE -112 256 -112 224
WIRE 64 256 64 224
WIRE 304 256 304 240
FLAG 304 256 0
FLAG 224 112 vin
FLAG 304 112 vout
FLAG 64 256 0
FLAG -112 256 0
FLAG -112 96 vdd
FLAG 64 112 vin
FLAG 304 -64 COM
FLAG -112 48 COM
SYMBOL EE551\\NMOS4 240 176 R0
SYMATTR Value2 W=2u
SYMATTR SpiceLine L=1u
SYMATTR InstName U1
SYMBOL voltage 64 128 R0
SYMATTR InstName V_input
SYMATTR Value 1
SYMBOL voltage -112 128 R0
SYMATTR InstName V_supply
SYMATTR Value 3.3
SYMBOL EE551\\PMOS4 240 48 R0
SYMATTR InstName U2
SYMATTR Value2 W=7u
SYMATTR SpiceLine L=1u
TEXT -80 -8 Left 2 !.dc V_input 0 3.3 0.01
